data_image0
_chemical_formula_structural       Cu27OC
_chemical_formula_sum              "Cu27 O1 C1"
_cell_length_a       7.65796644025031
_cell_length_b       7.65796644025031
_cell_length_c       19.61
_cell_angle_alpha    90.0
_cell_angle_beta     90.0
_cell_angle_gamma    90.0

_space_group_name_H-M_alt    "P 1"
_space_group_IT_number       1

loop_
  _space_group_symop_operation_xyz
  'x, y, z'

loop_
  _atom_site_type_symbol
  _atom_site_label
  _atom_site_symmetry_multiplicity
  _atom_site_fract_x
  _atom_site_fract_y
  _atom_site_fract_z
  _atom_site_occupancy
  Cu  Cu1       1.0  0.0  0.0  0.407955124936257  1.0000
  Cu  Cu2       1.0  0.3333333333333333  0.0  0.407955124936257  1.0000
  Cu  Cu3       1.0  0.6666666666666666  0.0  0.407955124936257  1.0000
  Cu  Cu4       1.0  0.0  0.3333333333333333  0.407955124936257  1.0000
  Cu  Cu5       1.0  0.3333333333333333  0.3333333333333333  0.407955124936257  1.0000
  Cu  Cu6       1.0  0.6666666666666666  0.3333333333333333  0.407955124936257  1.0000
  Cu  Cu7       1.0  0.0  0.6666666666666666  0.407955124936257  1.0000
  Cu  Cu8       1.0  0.3333333333333333  0.6666666666666666  0.407955124936257  1.0000
  Cu  Cu9       1.0  0.6666666666666666  0.6666666666666666  0.407955124936257  1.0000
  Cu  Cu10      1.0  0.1667655638474456  0.16629892487852121  0.5000922166355204  1.0000
  Cu  Cu11      1.0  0.4978642833132624  0.1652582500989059  0.5026235724872948  1.0000
  Cu  Cu12      1.0  0.8352413524640528  0.165282811079845  0.5026258429689765  1.0000
  Cu  Cu13      1.0  0.1666666798914962  0.4999991570371717  0.500657260346463  1.0000
  Cu  Cu14      1.0  0.5012963607394547  0.5000229307749988  0.5007623906500155  1.0000
  Cu  Cu15      1.0  0.8320369585354849  0.49997738431430716  0.5007623892267328  1.0000
  Cu  Cu16      1.0  0.1665677739120038  0.8337017506692654  0.5000918505802747  1.0000
  Cu  Cu17      1.0  0.49809198081749917  0.8347170119904751  0.5026259592952504  1.0000
  Cu  Cu18      1.0  0.8354690636257343  0.8347415846483417  0.5026236628709396  1.0000
  Cu  Cu19      1.0  0.9997877079698039  0.9998652269562328  0.6009783110021405  1.0000
  Cu  Cu20      1.0  0.3335455808372861  0.00013479883894568562  0.6009782969681874  1.0000
  Cu  Cu21      1.0  0.6666662313698868  1.2324795172003394e-07  0.5953435533743424  1.0000
  Cu  Cu22      1.0  6.956239689984386e-05  0.33579406414134966  0.5936460203135197  1.0000
  Cu  Cu23      1.0  0.3337173934766204  0.3358182401447247  0.59373802260623  1.0000
  Cu  Cu24      1.0  0.6668043728973825  0.33353921085384675  0.5947569983066242  1.0000
  Cu  Cu25      1.0  0.9996301184134612  0.6641817789226813  0.5937363551363248  1.0000
  Cu  Cu26      1.0  0.33324965480991736  0.6642059862091058  0.5936443633735318  1.0000
  Cu  Cu27      1.0  0.6665294309253937  0.6664606391399147  0.594756439794879  1.0000
  O   O1        1.0  0.16666664687325558  0.9999999491650374  0.7392669228268411  1.0000
  C   C1        1.0  0.1666666544528995  1.668998548500192e-07  0.679254608415202  1.0000
