data_surface
_audit_creation_date              2025-08-03
_audit_creation_method            'Materials Studio'
_symmetry_space_group_name_H-M    'P1'
_symmetry_Int_Tables_number       1
_symmetry_cell_setting            triclinic
loop_
_symmetry_equiv_pos_as_xyz
  x,y,z
_cell_length_a                    19.6214
_cell_length_b                    20.9576
_cell_length_c                    50.0000
_cell_angle_alpha                 90.0000
_cell_angle_beta                  90.0000
_cell_angle_gamma                 90.0000
loop_
_atom_site_label
_atom_site_type_symbol
_atom_site_fract_x
_atom_site_fract_y
_atom_site_fract_z
_atom_site_U_iso_or_equiv
_atom_site_adp_type
_atom_site_occupancy
O1     O     0.38946   0.07256   0.03847   0.00000  Uiso   1.00
O2     O     0.38946   0.57256   0.03847   0.00000  Uiso   1.00
O3     O     0.88946   0.07256   0.03847   0.00000  Uiso   1.00
O4     O     0.88946   0.57256   0.03847   0.00000  Uiso   1.00
O5     O     0.38946   0.32256   0.03847   0.00000  Uiso   1.00
O6     O     0.38946   0.82256   0.03847   0.00000  Uiso   1.00
O7     O     0.88946   0.32256   0.03847   0.00000  Uiso   1.00
O8     O     0.88946   0.82256   0.03847   0.00000  Uiso   1.00
O9     O     0.22279   0.07256   0.03847   0.00000  Uiso   1.00
O10    O     0.22279   0.57256   0.03847   0.00000  Uiso   1.00
O11    O     0.72279   0.07256   0.03847   0.00000  Uiso   1.00
O12    O     0.72279   0.57256   0.03847   0.00000  Uiso   1.00
O13    O     0.22279   0.32256   0.03847   0.00000  Uiso   1.00
O14    O     0.22279   0.82256   0.03847   0.00000  Uiso   1.00
O15    O     0.72279   0.32256   0.03847   0.00000  Uiso   1.00
O16    O     0.72279   0.82256   0.03847   0.00000  Uiso   1.00
O17    O     0.05612   0.07256   0.03847   0.00000  Uiso   1.00
O18    O     0.05612   0.57256   0.03847   0.00000  Uiso   1.00
O19    O     0.55612   0.07256   0.03847   0.00000  Uiso   1.00
O20    O     0.55612   0.57256   0.03847   0.00000  Uiso   1.00
O21    O     0.05612   0.32256   0.03847   0.00000  Uiso   1.00
O22    O     0.05612   0.82256   0.03847   0.00000  Uiso   1.00
O23    O     0.55612   0.32256   0.03847   0.00000  Uiso   1.00
O24    O     0.55612   0.82256   0.03847   0.00000  Uiso   1.00
O25    O     0.47279   0.19756   0.05735   0.00000  Uiso   1.00
O26    O     0.47279   0.69756   0.05735   0.00000  Uiso   1.00
O27    O     0.97279   0.19756   0.05735   0.00000  Uiso   1.00
O28    O     0.97279   0.69756   0.05735   0.00000  Uiso   1.00
O29    O     0.47279   0.44756   0.05735   0.00000  Uiso   1.00
O30    O     0.47279   0.94756   0.05735   0.00000  Uiso   1.00
O31    O     0.97279   0.44756   0.05735   0.00000  Uiso   1.00
O32    O     0.97279   0.94756   0.05735   0.00000  Uiso   1.00
O33    O     0.30612   0.19756   0.05735   0.00000  Uiso   1.00
O34    O     0.30612   0.69756   0.05735   0.00000  Uiso   1.00
O35    O     0.80612   0.19756   0.05735   0.00000  Uiso   1.00
O36    O     0.80612   0.69756   0.05735   0.00000  Uiso   1.00
O37    O     0.30612   0.44756   0.05735   0.00000  Uiso   1.00
O38    O     0.30612   0.94756   0.05735   0.00000  Uiso   1.00
O39    O     0.80612   0.44756   0.05735   0.00000  Uiso   1.00
O40    O     0.80612   0.94756   0.05735   0.00000  Uiso   1.00
O41    O     0.13945   0.19756   0.05735   0.00000  Uiso   1.00
O42    O     0.13945   0.69756   0.05735   0.00000  Uiso   1.00
O43    O     0.63945   0.19756   0.05735   0.00000  Uiso   1.00
O44    O     0.63945   0.69756   0.05735   0.00000  Uiso   1.00
O45    O     0.13945   0.44756   0.05735   0.00000  Uiso   1.00
O46    O     0.13945   0.94756   0.05735   0.00000  Uiso   1.00
O47    O     0.63945   0.44756   0.05735   0.00000  Uiso   1.00
O48    O     0.63945   0.94756   0.05735   0.00000  Uiso   1.00
O49    O     0.47324   0.07017   0.09592   0.00000  Uiso   1.00
O50    O     0.47332   0.57017   0.09588   0.00000  Uiso   1.00
O51    O     0.97193   0.07025   0.09600   0.00000  Uiso   1.00
O52    O     0.97222   0.57024   0.09597   0.00000  Uiso   1.00
O53    O     0.47334   0.32019   0.09592   0.00000  Uiso   1.00
O54    O     0.47325   0.82005   0.09594   0.00000  Uiso   1.00
O55    O     0.97195   0.32021   0.09600   0.00000  Uiso   1.00
O56    O     0.97212   0.82023   0.09600   0.00000  Uiso   1.00
O57    O     0.30528   0.07025   0.09600   0.00000  Uiso   1.00
O58    O     0.30533   0.57021   0.09594   0.00000  Uiso   1.00
O59    O     0.80649   0.07015   0.09593   0.00000  Uiso   1.00
O60    O     0.80673   0.57018   0.09590   0.00000  Uiso   1.00
O61    O     0.30535   0.32021   0.09599   0.00000  Uiso   1.00
O62    O     0.30542   0.82018   0.09601   0.00000  Uiso   1.00
O63    O     0.80658   0.32016   0.09593   0.00000  Uiso   1.00
O64    O     0.80663   0.82017   0.09592   0.00000  Uiso   1.00
O65    O     0.13990   0.07018   0.09592   0.00000  Uiso   1.00
O66    O     0.14000   0.57011   0.09591   0.00000  Uiso   1.00
O67    O     0.63853   0.07024   0.09601   0.00000  Uiso   1.00
O68    O     0.63853   0.57019   0.09604   0.00000  Uiso   1.00
O69    O     0.13990   0.32013   0.09592   0.00000  Uiso   1.00
O70    O     0.13999   0.82015   0.09591   0.00000  Uiso   1.00
O71    O     0.63867   0.32029   0.09601   0.00000  Uiso   1.00
O72    O     0.63852   0.82015   0.09602   0.00000  Uiso   1.00
O73    O     0.38929   0.19525   0.11348   0.00000  Uiso   1.00
O74    O     0.38943   0.69506   0.11367   0.00000  Uiso   1.00
O75    O     0.88892   0.19514   0.11428   0.00000  Uiso   1.00
O76    O     0.88910   0.69518   0.11420   0.00000  Uiso   1.00
O77    O     0.38945   0.44514   0.11346   0.00000  Uiso   1.00
O78    O     0.38928   0.94519   0.11350   0.00000  Uiso   1.00
O79    O     0.88905   0.44510   0.11427   0.00000  Uiso   1.00
O80    O     0.88901   0.94512   0.11426   0.00000  Uiso   1.00
O81    O     0.22233   0.19515   0.11428   0.00000  Uiso   1.00
O82    O     0.22240   0.69508   0.11427   0.00000  Uiso   1.00
O83    O     0.72255   0.19524   0.11350   0.00000  Uiso   1.00
O84    O     0.72261   0.69527   0.11335   0.00000  Uiso   1.00
O85    O     0.22242   0.44507   0.11426   0.00000  Uiso   1.00
O86    O     0.22232   0.94517   0.11428   0.00000  Uiso   1.00
O87    O     0.72265   0.44522   0.11356   0.00000  Uiso   1.00
O88    O     0.72255   0.94514   0.11348   0.00000  Uiso   1.00
O89    O     0.05591   0.19522   0.11348   0.00000  Uiso   1.00
O90    O     0.05606   0.69519   0.11352   0.00000  Uiso   1.00
O91    O     0.55563   0.19518   0.11432   0.00000  Uiso   1.00
O92    O     0.55564   0.69499   0.11443   0.00000  Uiso   1.00
O93    O     0.05600   0.44514   0.11351   0.00000  Uiso   1.00
O94    O     0.05598   0.94523   0.11350   0.00000  Uiso   1.00
O95    O     0.55580   0.44521   0.11437   0.00000  Uiso   1.00
O96    O     0.55560   0.94501   0.11433   0.00000  Uiso   1.00
O97    O     0.38887   0.07030   0.15150   0.00000  Uiso   1.00
O98    O     0.38883   0.57000   0.15135   0.00000  Uiso   1.00
O99    O     0.88832   0.06990   0.15312   0.00000  Uiso   1.00
O100   O     0.88895   0.56999   0.15298   0.00000  Uiso   1.00
O101   O     0.38904   0.32035   0.15152   0.00000  Uiso   1.00
O102   O     0.38919   0.82013   0.15158   0.00000  Uiso   1.00
O103   O     0.88832   0.31991   0.15315   0.00000  Uiso   1.00
O104   O     0.88856   0.81995   0.15308   0.00000  Uiso   1.00
O105   O     0.22164   0.06995   0.15313   0.00000  Uiso   1.00
O106   O     0.22177   0.56979   0.15310   0.00000  Uiso   1.00
O107   O     0.72217   0.07012   0.15151   0.00000  Uiso   1.00
O108   O     0.72286   0.57035   0.15140   0.00000  Uiso   1.00
O109   O     0.22168   0.31990   0.15312   0.00000  Uiso   1.00
O110   O     0.22171   0.81999   0.15311   0.00000  Uiso   1.00
O111   O     0.72216   0.32038   0.15155   0.00000  Uiso   1.00
O112   O     0.72232   0.82016   0.15152   0.00000  Uiso   1.00
O113   O     0.05552   0.07025   0.15151   0.00000  Uiso   1.00
O114   O     0.05582   0.57018   0.15154   0.00000  Uiso   1.00
O115   O     0.55497   0.06982   0.15315   0.00000  Uiso   1.00
O116   O     0.55486   0.56975   0.15330   0.00000  Uiso   1.00
O117   O     0.05558   0.32019   0.15153   0.00000  Uiso   1.00
O118   O     0.05571   0.82020   0.15154   0.00000  Uiso   1.00
O119   O     0.55508   0.32008   0.15317   0.00000  Uiso   1.00
O120   O     0.55496   0.81964   0.15324   0.00000  Uiso   1.00
O121   O     0.30528   0.19596   0.17146   0.00000  Uiso   1.00
O122   O     0.30525   0.69614   0.17139   0.00000  Uiso   1.00
O123   O     0.80431   0.19715   0.17062   0.00000  Uiso   1.00
O124   O     0.80467   0.69738   0.17044   0.00000  Uiso   1.00
O125   O     0.30542   0.44596   0.17144   0.00000  Uiso   1.00
O126   O     0.30535   0.94598   0.17143   0.00000  Uiso   1.00
O127   O     0.80448   0.44720   0.17069   0.00000  Uiso   1.00
O128   O     0.80439   0.94711   0.17059   0.00000  Uiso   1.00
O129   O     0.13767   0.19709   0.17065   0.00000  Uiso   1.00
O130   O     0.13783   0.69710   0.17068   0.00000  Uiso   1.00
O131   O     0.63862   0.19577   0.17147   0.00000  Uiso   1.00
O132   O     0.63895   0.69587   0.17140   0.00000  Uiso   1.00
O133   O     0.13786   0.44706   0.17066   0.00000  Uiso   1.00
O134   O     0.13776   0.94714   0.17065   0.00000  Uiso   1.00
O135   O     0.63874   0.44620   0.17173   0.00000  Uiso   1.00
O136   O     0.63859   0.94579   0.17148   0.00000  Uiso   1.00
O137   O     0.47106   0.19710   0.17065   0.00000  Uiso   1.00
O138   O     0.47120   0.69654   0.17114   0.00000  Uiso   1.00
O139   O     0.97189   0.19592   0.17147   0.00000  Uiso   1.00
O140   O     0.97209   0.69594   0.17149   0.00000  Uiso   1.00
O141   O     0.47128   0.44720   0.17076   0.00000  Uiso   1.00
O142   O     0.47108   0.94710   0.17067   0.00000  Uiso   1.00
O143   O     0.97199   0.44589   0.17151   0.00000  Uiso   1.00
O144   O     0.97200   0.94593   0.17147   0.00000  Uiso   1.00
Zn145  Zn    0.38946   0.16802   0.03847   0.00000  Uiso   1.00
Zn146  Zn    0.38946   0.66802   0.03847   0.00000  Uiso   1.00
Zn147  Zn    0.88946   0.16802   0.03847   0.00000  Uiso   1.00
Zn148  Zn    0.88946   0.66802   0.03847   0.00000  Uiso   1.00
Zn149  Zn    0.38946   0.41802   0.03847   0.00000  Uiso   1.00
Zn150  Zn    0.38946   0.91802   0.03847   0.00000  Uiso   1.00
Zn151  Zn    0.88946   0.41802   0.03847   0.00000  Uiso   1.00
Zn152  Zn    0.88946   0.91802   0.03847   0.00000  Uiso   1.00
Zn153  Zn    0.22279   0.16802   0.03847   0.00000  Uiso   1.00
Zn154  Zn    0.22279   0.66802   0.03847   0.00000  Uiso   1.00
Zn155  Zn    0.72279   0.16802   0.03847   0.00000  Uiso   1.00
Zn156  Zn    0.72279   0.66802   0.03847   0.00000  Uiso   1.00
Zn157  Zn    0.22279   0.41802   0.03847   0.00000  Uiso   1.00
Zn158  Zn    0.22279   0.91802   0.03847   0.00000  Uiso   1.00
Zn159  Zn    0.72279   0.41802   0.03847   0.00000  Uiso   1.00
Zn160  Zn    0.72279   0.91802   0.03847   0.00000  Uiso   1.00
Zn161  Zn    0.05612   0.16802   0.03847   0.00000  Uiso   1.00
Zn162  Zn    0.05612   0.66802   0.03847   0.00000  Uiso   1.00
Zn163  Zn    0.55612   0.16802   0.03847   0.00000  Uiso   1.00
Zn164  Zn    0.55612   0.66802   0.03847   0.00000  Uiso   1.00
Zn165  Zn    0.05612   0.41802   0.03847   0.00000  Uiso   1.00
Zn166  Zn    0.05612   0.91802   0.03847   0.00000  Uiso   1.00
Zn167  Zn    0.55612   0.41802   0.03847   0.00000  Uiso   1.00
Zn168  Zn    0.55612   0.91802   0.03847   0.00000  Uiso   1.00
Zn169  Zn    0.47279   0.04302   0.05735   0.00000  Uiso   1.00
Zn170  Zn    0.47279   0.54302   0.05735   0.00000  Uiso   1.00
Zn171  Zn    0.97279   0.04302   0.05735   0.00000  Uiso   1.00
Zn172  Zn    0.97279   0.54302   0.05735   0.00000  Uiso   1.00
Zn173  Zn    0.47279   0.29302   0.05735   0.00000  Uiso   1.00
Zn174  Zn    0.47279   0.79302   0.05735   0.00000  Uiso   1.00
Zn175  Zn    0.97279   0.29302   0.05735   0.00000  Uiso   1.00
Zn176  Zn    0.97279   0.79302   0.05735   0.00000  Uiso   1.00
Zn177  Zn    0.30612   0.04302   0.05735   0.00000  Uiso   1.00
Zn178  Zn    0.30612   0.54302   0.05735   0.00000  Uiso   1.00
Zn179  Zn    0.80612   0.04302   0.05735   0.00000  Uiso   1.00
Zn180  Zn    0.80612   0.54302   0.05735   0.00000  Uiso   1.00
Zn181  Zn    0.30612   0.29302   0.05735   0.00000  Uiso   1.00
Zn182  Zn    0.30612   0.79302   0.05735   0.00000  Uiso   1.00
Zn183  Zn    0.80612   0.29302   0.05735   0.00000  Uiso   1.00
Zn184  Zn    0.80612   0.79302   0.05735   0.00000  Uiso   1.00
Zn185  Zn    0.13945   0.04302   0.05735   0.00000  Uiso   1.00
Zn186  Zn    0.13945   0.54302   0.05735   0.00000  Uiso   1.00
Zn187  Zn    0.63945   0.04302   0.05735   0.00000  Uiso   1.00
Zn188  Zn    0.63945   0.54302   0.05735   0.00000  Uiso   1.00
Zn189  Zn    0.13945   0.29302   0.05735   0.00000  Uiso   1.00
Zn190  Zn    0.13945   0.79302   0.05735   0.00000  Uiso   1.00
Zn191  Zn    0.63945   0.29302   0.05735   0.00000  Uiso   1.00
Zn192  Zn    0.63945   0.79302   0.05735   0.00000  Uiso   1.00
Zn193  Zn    0.47298   0.16450   0.09539   0.00000  Uiso   1.00
Zn194  Zn    0.47296   0.66453   0.09543   0.00000  Uiso   1.00
Zn195  Zn    0.97202   0.16466   0.09529   0.00000  Uiso   1.00
Zn196  Zn    0.97228   0.66467   0.09528   0.00000  Uiso   1.00
Zn197  Zn    0.47315   0.41455   0.09540   0.00000  Uiso   1.00
Zn198  Zn    0.47293   0.91438   0.09540   0.00000  Uiso   1.00
Zn199  Zn    0.97220   0.41462   0.09528   0.00000  Uiso   1.00
Zn200  Zn    0.97214   0.91465   0.09530   0.00000  Uiso   1.00
Zn201  Zn    0.30540   0.16466   0.09529   0.00000  Uiso   1.00
Zn202  Zn    0.30565   0.66464   0.09537   0.00000  Uiso   1.00
Zn203  Zn    0.80626   0.16449   0.09539   0.00000  Uiso   1.00
Zn204  Zn    0.80640   0.66453   0.09535   0.00000  Uiso   1.00
Zn205  Zn    0.30554   0.41465   0.09530   0.00000  Uiso   1.00
Zn206  Zn    0.30541   0.91459   0.09530   0.00000  Uiso   1.00
Zn207  Zn    0.80634   0.41449   0.09539   0.00000  Uiso   1.00
Zn208  Zn    0.80631   0.91451   0.09538   0.00000  Uiso   1.00
Zn209  Zn    0.13965   0.16452   0.09539   0.00000  Uiso   1.00
Zn210  Zn    0.13977   0.66446   0.09540   0.00000  Uiso   1.00
Zn211  Zn    0.63862   0.16464   0.09529   0.00000  Uiso   1.00
Zn212  Zn    0.63849   0.66465   0.09530   0.00000  Uiso   1.00
Zn213  Zn    0.13976   0.41449   0.09539   0.00000  Uiso   1.00
Zn214  Zn    0.13969   0.91446   0.09539   0.00000  Uiso   1.00
Zn215  Zn    0.63873   0.41473   0.09531   0.00000  Uiso   1.00
Zn216  Zn    0.63861   0.91457   0.09529   0.00000  Uiso   1.00
Zn217  Zn    0.38942   0.04053   0.11401   0.00000  Uiso   1.00
Zn218  Zn    0.38946   0.54058   0.11398   0.00000  Uiso   1.00
Zn219  Zn    0.88919   0.04069   0.11500   0.00000  Uiso   1.00
Zn220  Zn    0.88947   0.54067   0.11490   0.00000  Uiso   1.00
Zn221  Zn    0.38952   0.29064   0.11402   0.00000  Uiso   1.00
Zn222  Zn    0.38949   0.79038   0.11411   0.00000  Uiso   1.00
Zn223  Zn    0.88925   0.29070   0.11502   0.00000  Uiso   1.00
Zn224  Zn    0.88934   0.79076   0.11498   0.00000  Uiso   1.00
Zn225  Zn    0.22254   0.04072   0.11502   0.00000  Uiso   1.00
Zn226  Zn    0.22271   0.54069   0.11503   0.00000  Uiso   1.00
Zn227  Zn    0.72266   0.04050   0.11399   0.00000  Uiso   1.00
Zn228  Zn    0.72287   0.54059   0.11387   0.00000  Uiso   1.00
Zn229  Zn    0.22259   0.29074   0.11502   0.00000  Uiso   1.00
Zn230  Zn    0.22265   0.79061   0.11503   0.00000  Uiso   1.00
Zn231  Zn    0.72280   0.29061   0.11402   0.00000  Uiso   1.00
Zn232  Zn    0.72279   0.79065   0.11398   0.00000  Uiso   1.00
Zn233  Zn    0.05612   0.04061   0.11401   0.00000  Uiso   1.00
Zn234  Zn    0.05631   0.54053   0.11404   0.00000  Uiso   1.00
Zn235  Zn    0.55580   0.04058   0.11504   0.00000  Uiso   1.00
Zn236  Zn    0.55565   0.54085   0.11513   0.00000  Uiso   1.00
Zn237  Zn    0.05614   0.29060   0.11402   0.00000  Uiso   1.00
Zn238  Zn    0.05627   0.79055   0.11404   0.00000  Uiso   1.00
Zn239  Zn    0.55588   0.29078   0.11504   0.00000  Uiso   1.00
Zn240  Zn    0.55578   0.79061   0.11511   0.00000  Uiso   1.00
Zn241  Zn    0.38430   0.16523   0.15108   0.00000  Uiso   1.00
Zn242  Zn    0.38459   0.66490   0.15140   0.00000  Uiso   1.00
Zn243  Zn    0.89153   0.16514   0.15216   0.00000  Uiso   1.00
Zn244  Zn    0.89187   0.66529   0.15205   0.00000  Uiso   1.00
Zn245  Zn    0.38455   0.41544   0.15111   0.00000  Uiso   1.00
Zn246  Zn    0.38444   0.91500   0.15112   0.00000  Uiso   1.00
Zn247  Zn    0.89172   0.41513   0.15213   0.00000  Uiso   1.00
Zn248  Zn    0.89163   0.91522   0.15214   0.00000  Uiso   1.00
Zn249  Zn    0.22486   0.16521   0.15217   0.00000  Uiso   1.00
Zn250  Zn    0.22510   0.66505   0.15218   0.00000  Uiso   1.00
Zn251  Zn    0.71764   0.16503   0.15107   0.00000  Uiso   1.00
Zn252  Zn    0.71799   0.66545   0.15090   0.00000  Uiso   1.00
Zn253  Zn    0.22507   0.41518   0.15216   0.00000  Uiso   1.00
Zn254  Zn    0.22493   0.91518   0.15216   0.00000  Uiso   1.00
Zn255  Zn    0.71763   0.41532   0.15115   0.00000  Uiso   1.00
Zn256  Zn    0.71762   0.91513   0.15109   0.00000  Uiso   1.00
Zn257  Zn    0.05098   0.16521   0.15109   0.00000  Uiso   1.00
Zn258  Zn    0.05123   0.66515   0.15114   0.00000  Uiso   1.00
Zn259  Zn    0.55812   0.16503   0.15217   0.00000  Uiso   1.00
Zn260  Zn    0.55782   0.66512   0.15239   0.00000  Uiso   1.00
Zn261  Zn    0.05119   0.41519   0.15114   0.00000  Uiso   1.00
Zn262  Zn    0.05111   0.91514   0.15110   0.00000  Uiso   1.00
Zn263  Zn    0.55821   0.41540   0.15226   0.00000  Uiso   1.00
Zn264  Zn    0.55808   0.91492   0.15222   0.00000  Uiso   1.00
Zn265  Zn    0.30619   0.03837   0.17152   0.00000  Uiso   1.00
Zn266  Zn    0.30637   0.53848   0.17171   0.00000  Uiso   1.00
Zn267  Zn    0.80409   0.04383   0.17251   0.00000  Uiso   1.00
Zn268  Zn    0.80493   0.54396   0.17227   0.00000  Uiso   1.00
Zn269  Zn    0.30629   0.28845   0.17150   0.00000  Uiso   1.00
Zn270  Zn    0.30629   0.78838   0.17153   0.00000  Uiso   1.00
Zn271  Zn    0.80409   0.29386   0.17247   0.00000  Uiso   1.00
Zn272  Zn    0.80437   0.79413   0.17250   0.00000  Uiso   1.00
Zn273  Zn    0.13742   0.04387   0.17253   0.00000  Uiso   1.00
Zn274  Zn    0.13780   0.54390   0.17259   0.00000  Uiso   1.00
Zn275  Zn    0.63947   0.03821   0.17153   0.00000  Uiso   1.00
Zn276  Zn    0.63990   0.53886   0.17110   0.00000  Uiso   1.00
Zn277  Zn    0.13753   0.29385   0.17256   0.00000  Uiso   1.00
Zn278  Zn    0.13767   0.79387   0.17259   0.00000  Uiso   1.00
Zn279  Zn    0.63947   0.28812   0.17141   0.00000  Uiso   1.00
Zn280  Zn    0.63961   0.78836   0.17156   0.00000  Uiso   1.00
Zn281  Zn    0.47067   0.04377   0.17254   0.00000  Uiso   1.00
Zn282  Zn    0.47019   0.54421   0.17299   0.00000  Uiso   1.00
Zn283  Zn    0.97289   0.03836   0.17152   0.00000  Uiso   1.00
Zn284  Zn    0.97323   0.53833   0.17154   0.00000  Uiso   1.00
Zn285  Zn    0.47078   0.29387   0.17256   0.00000  Uiso   1.00
Zn286  Zn    0.47076   0.79320   0.17277   0.00000  Uiso   1.00
Zn287  Zn    0.97293   0.28836   0.17154   0.00000  Uiso   1.00
Zn288  Zn    0.97302   0.78836   0.17153   0.00000  Uiso   1.00
O289   O     0.82204   0.79768   0.21085   0.00000  Uiso   1.00
O290   O     0.48212   0.80072   0.21109   0.00000  Uiso   1.00
O291   O     0.82806   0.30653   0.20421   0.00000  Uiso   1.00
O292   O     0.47695   0.29876   0.20690   0.00000  Uiso   1.00
loop_
_geom_bond_atom_site_label_1
_geom_bond_atom_site_label_2
_geom_bond_distance
_geom_bond_site_symmetry_2
_ccdc_geom_bond_type
O1     Zn145   2.001   .     S
O1     Zn169   1.987   .     S
O1     Zn177   1.987   .     S
O2     Zn146   2.001   .     S
O2     Zn170   1.987   .     S
O2     Zn178   1.987   .     S
O3     Zn147   2.001   .     S
O3     Zn171   1.987   .     S
O3     Zn179   1.987   .     S
O4     Zn148   2.001   .     S
O4     Zn172   1.987   .     S
O4     Zn180   1.987   .     S
O5     Zn149   2.001   .     S
O5     Zn173   1.987   .     S
O5     Zn181   1.987   .     S
O6     Zn150   2.001   .     S
O6     Zn174   1.987   .     S
O6     Zn182   1.987   .     S
O7     Zn151   2.001   .     S
O7     Zn175   1.987   .     S
O7     Zn183   1.987   .     S
O8     Zn152   2.001   .     S
O8     Zn176   1.987   .     S
O8     Zn184   1.987   .     S
O9     Zn153   2.001   .     S
O9     Zn177   1.987   .     S
O9     Zn185   1.987   .     S
O10    Zn154   2.001   .     S
O10    Zn178   1.987   .     S
O10    Zn186   1.987   .     S
O11    Zn155   2.001   .     S
O11    Zn179   1.987   .     S
O11    Zn187   1.987   .     S
O12    Zn156   2.001   .     S
O12    Zn180   1.987   .     S
O12    Zn188   1.987   .     S
O13    Zn157   2.001   .     S
O13    Zn181   1.987   .     S
O13    Zn189   1.987   .     S
O14    Zn158   2.001   .     S
O14    Zn182   1.987   .     S
O14    Zn190   1.987   .     S
O15    Zn159   2.001   .     S
O15    Zn183   1.987   .     S
O15    Zn191   1.987   .     S
O16    Zn160   2.001   .     S
O16    Zn184   1.987   .     S
O16    Zn192   1.987   .     S
O17    Zn161   2.001   .     S
O17    Zn185   1.987   .     S
O17    Zn171   1.987   1_455 S
O18    Zn162   2.001   .     S
O18    Zn186   1.987   .     S
O18    Zn172   1.987   1_455 S
O19    Zn163   2.001   .     S
O19    Zn169   1.987   .     S
O19    Zn187   1.987   .     S
O20    Zn164   2.001   .     S
O20    Zn170   1.987   .     S
O20    Zn188   1.987   .     S
O21    Zn165   2.001   .     S
O21    Zn189   1.987   .     S
O21    Zn175   1.987   1_455 S
O22    Zn166   2.001   .     S
O22    Zn190   1.987   .     S
O22    Zn176   1.987   1_455 S
O23    Zn167   2.001   .     S
O23    Zn173   1.987   .     S
O23    Zn191   1.987   .     S
O24    Zn168   2.001   .     S
O24    Zn174   1.987   .     S
O24    Zn192   1.987   .     S
O25    Zn145   1.987   .     S
O25    Zn163   1.987   .     S
O25    Zn173   2.001   .     S
O25    Zn193   2.024   .     S
O26    Zn146   1.987   .     S
O26    Zn164   1.987   .     S
O26    Zn174   2.001   .     S
O26    Zn194   2.026   .     S
O27    Zn147   1.987   .     S
O27    Zn175   2.001   .     S
O27    Zn195   2.018   .     S
O27    Zn161   1.987   1_655 S
O28    Zn148   1.987   .     S
O28    Zn176   2.001   .     S
O28    Zn196   2.018   .     S
O28    Zn162   1.987   1_655 S
O29    Zn149   1.987   .     S
O29    Zn167   1.987   .     S
O29    Zn170   2.001   .     S
O29    Zn197   2.024   .     S
O30    Zn150   1.987   .     S
O30    Zn168   1.987   .     S
O30    Zn198   2.026   .     S
O30    Zn169   2.001   1_565 S
O31    Zn151   1.987   .     S
O31    Zn172   2.001   .     S
O31    Zn199   2.018   .     S
O31    Zn165   1.987   1_655 S
O32    Zn152   1.987   .     S
O32    Zn200   2.019   .     S
O32    Zn166   1.987   1_655 S
O32    Zn171   2.001   1_565 S
O33    Zn145   1.987   .     S
O33    Zn153   1.987   .     S
O33    Zn181   2.001   .     S
O33    Zn201   2.018   .     S
O34    Zn146   1.987   .     S
O34    Zn154   1.987   .     S
O34    Zn182   2.001   .     S
O34    Zn202   2.022   .     S
O35    Zn147   1.987   .     S
O35    Zn155   1.987   .     S
O35    Zn183   2.001   .     S
O35    Zn203   2.024   .     S
O36    Zn148   1.987   .     S
O36    Zn156   1.987   .     S
O36    Zn184   2.001   .     S
O36    Zn204   2.022   .     S
O37    Zn149   1.987   .     S
O37    Zn157   1.987   .     S
O37    Zn178   2.001   .     S
O37    Zn205   2.019   .     S
O38    Zn150   1.987   .     S
O38    Zn158   1.987   .     S
O38    Zn206   2.019   .     S
O38    Zn177   2.001   1_565 S
O39    Zn151   1.987   .     S
O39    Zn159   1.987   .     S
O39    Zn180   2.001   .     S
O39    Zn207   2.024   .     S
O40    Zn152   1.987   .     S
O40    Zn160   1.987   .     S
O40    Zn208   2.024   .     S
O40    Zn179   2.001   1_565 S
O41    Zn153   1.987   .     S
O41    Zn161   1.987   .     S
O41    Zn189   2.001   .     S
O41    Zn209   2.024   .     S
O42    Zn154   1.987   .     S
O42    Zn162   1.987   .     S
O42    Zn190   2.001   .     S
O42    Zn210   2.025   .     S
O43    Zn155   1.987   .     S
O43    Zn163   1.987   .     S
O43    Zn191   2.001   .     S
O43    Zn211   2.019   .     S
O44    Zn156   1.987   .     S
O44    Zn164   1.987   .     S
O44    Zn192   2.001   .     S
O44    Zn212   2.019   .     S
O45    Zn157   1.987   .     S
O45    Zn165   1.987   .     S
O45    Zn186   2.001   .     S
O45    Zn213   2.024   .     S
O46    Zn158   1.987   .     S
O46    Zn166   1.987   .     S
O46    Zn214   2.025   .     S
O46    Zn185   2.001   1_565 S
O47    Zn159   1.987   .     S
O47    Zn167   1.987   .     S
O47    Zn188   2.001   .     S
O47    Zn215   2.019   .     S
O48    Zn160   1.987   .     S
O48    Zn168   1.987   .     S
O48    Zn216   2.019   .     S
O48    Zn187   2.001   1_565 S
O49    Zn169   2.011   .     S
O49    Zn193   1.977   .     S
O49    Zn217   1.977   .     S
O49    Zn235   1.981   .     S
O50    Zn170   2.009   .     S
O50    Zn194   1.978   .     S
O50    Zn218   1.978   .     S
O50    Zn236   1.978   .     S
O51    Zn171   2.015   .     S
O51    Zn195   1.979   .     S
O51    Zn219   1.980   .     S
O51    Zn233   1.981   1_655 S
O52    Zn172   2.014   .     S
O52    Zn196   1.979   .     S
O52    Zn220   1.979   .     S
O52    Zn234   1.982   1_655 S
O53    Zn173   2.011   .     S
O53    Zn197   1.978   .     S
O53    Zn221   1.977   .     S
O53    Zn239   1.979   .     S
O54    Zn174   2.011   .     S
O54    Zn198   1.977   .     S
O54    Zn222   1.978   .     S
O54    Zn240   1.980   .     S
O55    Zn175   2.015   .     S
O55    Zn199   1.979   .     S
O55    Zn223   1.980   .     S
O55    Zn237   1.981   1_655 S
O56    Zn176   2.015   .     S
O56    Zn200   1.979   .     S
O56    Zn224   1.980   .     S
O56    Zn238   1.982   1_655 S
O57    Zn177   2.015   .     S
O57    Zn201   1.979   .     S
O57    Zn217   1.981   .     S
O57    Zn225   1.981   .     S
O58    Zn178   2.012   .     S
O58    Zn202   1.979   .     S
O58    Zn218   1.981   .     S
O58    Zn226   1.980   .     S
O59    Zn179   2.011   .     S
O59    Zn203   1.977   .     S
O59    Zn219   1.981   .     S
O59    Zn227   1.977   .     S
O60    Zn180   2.010   .     S
O60    Zn204   1.978   .     S
O60    Zn220   1.980   .     S
O60    Zn228   1.975   .     S
O61    Zn181   2.014   .     S
O61    Zn205   1.980   .     S
O61    Zn221   1.981   .     S
O61    Zn229   1.981   .     S
O62    Zn182   2.015   .     S
O62    Zn206   1.979   .     S
O62    Zn222   1.982   .     S
O62    Zn230   1.981   .     S
O63    Zn183   2.011   .     S
O63    Zn207   1.977   .     S
O63    Zn223   1.981   .     S
O63    Zn231   1.976   .     S
O64    Zn184   2.011   .     S
O64    Zn208   1.977   .     S
O64    Zn224   1.980   .     S
O64    Zn232   1.976   .     S
O65    Zn185   2.011   .     S
O65    Zn209   1.977   .     S
O65    Zn225   1.981   .     S
O65    Zn233   1.976   .     S
O66    Zn186   2.010   .     S
O66    Zn210   1.978   .     S
O66    Zn226   1.982   .     S
O66    Zn234   1.975   .     S
O67    Zn187   2.016   .     S
O67    Zn211   1.979   .     S
O67    Zn227   1.980   .     S
O67    Zn235   1.982   .     S
O68    Zn188   2.017   .     S
O68    Zn212   1.980   .     S
O68    Zn228   1.979   .     S
O68    Zn236   1.983   .     S
O69    Zn189   2.010   .     S
O69    Zn213   1.978   .     S
O69    Zn229   1.981   .     S
O69    Zn237   1.976   .     S
O70    Zn190   2.010   .     S
O70    Zn214   1.977   .     S
O70    Zn230   1.982   .     S
O70    Zn238   1.976   .     S
O71    Zn191   2.016   .     S
O71    Zn215   1.980   .     S
O71    Zn231   1.981   .     S
O71    Zn239   1.982   .     S
O72    Zn192   2.015   .     S
O72    Zn216   1.979   .     S
O72    Zn232   1.981   .     S
O72    Zn240   1.982   .     S
O73    Zn193   1.982   .     S
O73    Zn201   1.987   .     S
O73    Zn221   1.999   .     S
O73    Zn241   1.985   .     S
O74    Zn194   1.982   .     S
O74    Zn202   1.986   .     S
O74    Zn222   1.998   .     S
O74    Zn242   1.992   .     S
O75    Zn195   1.992   .     S
O75    Zn203   1.984   .     S
O75    Zn223   2.003   .     S
O75    Zn243   1.996   .     S
O76    Zn196   1.992   .     S
O76    Zn204   1.983   .     S
O76    Zn224   2.004   .     S
O76    Zn244   1.994   .     S
O77    Zn197   1.981   .     S
O77    Zn205   1.986   .     S
O77    Zn218   2.000   .     S
O77    Zn245   1.985   .     S
O78    Zn198   1.982   .     S
O78    Zn206   1.987   .     S
O78    Zn246   1.987   .     S
O78    Zn217   1.998   1_565 S
O79    Zn199   1.993   .     S
O79    Zn207   1.984   .     S
O79    Zn220   2.003   .     S
O79    Zn247   1.995   .     S
O80    Zn200   1.992   .     S
O80    Zn208   1.984   .     S
O80    Zn248   1.996   .     S
O80    Zn219   2.003   1_565 S
O81    Zn201   1.992   .     S
O81    Zn209   1.984   .     S
O81    Zn229   2.004   .     S
O81    Zn249   1.996   .     S
O82    Zn202   1.992   .     S
O82    Zn210   1.983   .     S
O82    Zn230   2.002   .     S
O82    Zn250   1.998   .     S
O83    Zn203   1.983   .     S
O83    Zn211   1.988   .     S
O83    Zn231   1.999   .     S
O83    Zn251   1.985   .     S
O84    Zn204   1.982   .     S
O84    Zn212   1.988   .     S
O84    Zn232   1.999   .     S
O84    Zn252   1.981   .     S
O85    Zn205   1.991   .     S
O85    Zn213   1.983   .     S
O85    Zn226   2.004   .     S
O85    Zn253   1.997   .     S
O86    Zn206   1.992   .     S
O86    Zn214   1.984   .     S
O86    Zn254   1.996   .     S
O86    Zn225   2.003   1_565 S
O87    Zn207   1.984   .     S
O87    Zn215   1.988   .     S
O87    Zn228   1.999   .     S
O87    Zn255   1.984   .     S
O88    Zn208   1.983   .     S
O88    Zn216   1.988   .     S
O88    Zn256   1.985   .     S
O88    Zn227   1.999   1_565 S
O89    Zn209   1.983   .     S
O89    Zn237   1.999   .     S
O89    Zn257   1.985   .     S
O89    Zn195   1.987   1_455 S
O90    Zn210   1.983   .     S
O90    Zn238   1.999   .     S
O90    Zn258   1.986   .     S
O90    Zn196   1.986   1_455 S
O91    Zn193   1.985   .     S
O91    Zn211   1.992   .     S
O91    Zn239   2.004   .     S
O91    Zn259   1.996   .     S
O92    Zn194   1.985   .     S
O92    Zn212   1.990   .     S
O92    Zn240   2.004   .     S
O92    Zn260   1.999   .     S
O93    Zn213   1.984   .     S
O93    Zn234   1.999   .     S
O93    Zn261   1.986   .     S
O93    Zn199   1.986   1_455 S
O94    Zn214   1.983   .     S
O94    Zn262   1.985   .     S
O94    Zn200   1.986   1_455 S
O94    Zn233   1.999   1_565 S
O95    Zn197   1.986   .     S
O95    Zn215   1.991   .     S
O95    Zn236   2.005   .     S
O95    Zn263   1.995   .     S
O96    Zn198   1.985   .     S
O96    Zn216   1.992   .     S
O96    Zn264   1.997   .     S
O96    Zn235   2.003   1_565 S
O97    Zn217   1.976   .     S
O97    Zn241   1.992   .     S
O97    Zn265   2.020   .     S
O97    Zn281   1.998   .     S
O98    Zn218   1.968   .     S
O98    Zn242   1.991   .     S
O98    Zn266   2.023   .     S
O98    Zn282   2.003   .     S
O99    Zn219   2.002   .     S
O99    Zn243   1.998   .     S
O99    Zn267   1.992   .     S
O99    Zn283   2.009   .     S
O100   Zn220   2.001   .     S
O100   Zn244   1.999   .     S
O100   Zn268   1.986   .     S
O100   Zn284   2.009   .     S
O101   Zn221   1.976   .     S
O101   Zn245   1.995   .     S
O101   Zn269   2.020   .     S
O101   Zn285   1.997   .     S
O102   Zn222   1.975   .     S
O102   Zn246   1.991   .     S
O102   Zn270   2.021   .     S
O102   Zn286   2.001   .     S
O103   Zn223   2.002   .     S
O103   Zn247   1.997   .     S
O103   Zn271   1.991   .     S
O103   Zn287   2.010   .     S
O104   Zn224   2.001   .     S
O104   Zn248   1.998   .     S
O104   Zn272   1.991   .     S
O104   Zn288   2.009   .     S
O105   Zn225   2.002   .     S
O105   Zn249   1.998   .     S
O105   Zn265   2.009   .     S
O105   Zn273   1.993   .     S
O106   Zn226   1.999   .     S
O106   Zn250   1.998   .     S
O106   Zn266   2.013   .     S
O106   Zn274   1.990   .     S
O107   Zn227   1.976   .     S
O107   Zn251   1.991   .     S
O107   Zn267   1.997   .     S
O107   Zn275   2.020   .     S
O108   Zn228   1.977   .     S
O108   Zn252   1.996   .     S
O108   Zn268   1.997   .     S
O108   Zn276   2.014   .     S
O109   Zn229   2.001   .     S
O109   Zn253   1.999   .     S
O109   Zn269   2.009   .     S
O109   Zn277   1.992   .     S
O110   Zn230   2.001   .     S
O110   Zn254   1.997   .     S
O110   Zn270   2.010   .     S
O110   Zn278   1.992   .     S
O111   Zn231   1.978   .     S
O111   Zn255   1.992   .     S
O111   Zn271   1.997   .     S
O111   Zn279   2.019   .     S
O112   Zn232   1.976   .     S
O112   Zn256   1.993   .     S
O112   Zn272   1.997   .     S
O112   Zn280   2.020   .     S
O113   Zn233   1.975   .     S
O113   Zn257   1.992   .     S
O113   Zn273   1.998   .     S
O113   Zn283   2.019   1_455 S
O114   Zn234   1.975   .     S
O114   Zn258   1.992   .     S
O114   Zn274   2.000   .     S
O114   Zn284   2.018   1_455 S
O115   Zn235   2.002   .     S
O115   Zn259   1.997   .     S
O115   Zn275   2.008   .     S
O115   Zn281   1.993   .     S
O116   Zn236   2.002   .     S
O116   Zn260   2.000   .     S
O116   Zn276   1.999   .     S
O116   Zn282   2.004   .     S
O117   Zn237   1.975   .     S
O117   Zn261   1.993   .     S
O117   Zn277   1.999   .     S
O117   Zn287   2.019   1_455 S
O118   Zn238   1.975   .     S
O118   Zn262   1.992   .     S
O118   Zn278   2.000   .     S
O118   Zn288   2.019   1_455 S
O119   Zn239   2.003   .     S
O119   Zn263   1.999   .     S
O119   Zn279   2.006   .     S
O119   Zn285   1.994   .     S
O120   Zn240   2.001   .     S
O120   Zn264   1.998   .     S
O120   Zn280   2.007   .     S
O120   Zn286   1.998   .     S
O121   Zn241   1.964   .     S
O121   Zn249   1.958   .     S
O121   Zn269   1.938   .     S
O122   Zn242   1.962   .     S
O122   Zn250   1.955   .     S
O122   Zn270   1.933   .     S
O123   Zn243   2.057   .     S
O123   Zn251   2.074   .     S
O123   Zn271   2.029   .     S
O124   Zn244   2.056   .     S
O124   Zn252   2.072   .     S
O124   Zn272   2.030   .     S
O125   Zn245   1.963   .     S
O125   Zn253   1.957   .     S
O125   Zn266   1.939   .     S
O126   Zn246   1.965   .     S
O126   Zn254   1.958   .     S
O126   Zn265   1.936   1_565 S
O127   Zn247   2.060   .     S
O127   Zn255   2.075   .     S
O127   Zn268   2.029   .     S
O128   Zn248   2.056   .     S
O128   Zn256   2.073   .     S
O128   Zn267   2.029   1_565 S
O129   Zn249   2.056   .     S
O129   Zn257   2.073   .     S
O129   Zn277   2.030   .     S
O130   Zn250   2.059   .     S
O130   Zn258   2.071   .     S
O130   Zn278   2.030   .     S
O131   Zn251   1.965   .     S
O131   Zn259   1.960   .     S
O131   Zn279   1.936   .     S
O132   Zn252   1.965   .     S
O132   Zn260   1.963   .     S
O132   Zn280   1.938   .     S
O133   Zn253   2.057   .     S
O133   Zn261   2.071   .     S
O133   Zn274   2.032   .     S
O134   Zn254   2.056   .     S
O134   Zn262   2.073   .     S
O134   Zn273   2.029   1_565 S
O135   Zn255   1.968   .     S
O135   Zn263   1.965   .     S
O135   Zn276   1.942   .     S
O136   Zn256   1.964   .     S
O136   Zn264   1.960   .     S
O136   Zn275   1.937   1_565 S
O137   Zn241   2.074   .     S
O137   Zn259   2.055   .     S
O137   Zn285   2.030   .     S
O138   Zn242   2.074   .     S
O138   Zn260   2.050   .     S
O138   Zn286   2.027   .     S
O139   Zn243   1.958   .     S
O139   Zn287   1.937   .     S
O139   Zn257   1.965   1_655 S
O140   Zn244   1.958   .     S
O140   Zn288   1.937   .     S
O140   Zn258   1.965   1_655 S
O141   Zn245   2.075   .     S
O141   Zn263   2.052   .     S
O141   Zn282   2.036   .     S
O142   Zn246   2.073   .     S
O142   Zn264   2.054   .     S
O142   Zn281   2.028   1_565 S
O143   Zn247   1.958   .     S
O143   Zn284   1.937   .     S
O143   Zn261   1.966   1_655 S
O144   Zn248   1.958   .     S
O144   Zn262   1.966   1_655 S
O144   Zn283   1.937   1_565 S
Zn161  O27     1.987   1_455 S
Zn162  O28     1.987   1_455 S
Zn165  O31     1.987   1_455 S
Zn166  O32     1.987   1_455 S
Zn169  O30     2.001   1_545 S
Zn171  O17     1.987   1_655 S
Zn171  O32     2.001   1_545 S
Zn172  O18     1.987   1_655 S
Zn175  O21     1.987   1_655 S
Zn176  O22     1.987   1_655 S
Zn177  O38     2.001   1_545 S
Zn179  O40     2.001   1_545 S
Zn185  O46     2.001   1_545 S
Zn187  O48     2.001   1_545 S
Zn195  O89     1.987   1_655 S
Zn196  O90     1.986   1_655 S
Zn199  O93     1.986   1_655 S
Zn200  O94     1.986   1_655 S
Zn217  O78     1.998   1_545 S
Zn219  O80     2.003   1_545 S
Zn225  O86     2.003   1_545 S
Zn227  O88     1.999   1_545 S
Zn233  O51     1.981   1_455 S
Zn233  O94     1.999   1_545 S
Zn234  O52     1.982   1_455 S
Zn235  O96     2.003   1_545 S
Zn237  O55     1.981   1_455 S
Zn238  O56     1.982   1_455 S
Zn257  O139    1.965   1_455 S
Zn258  O140    1.965   1_455 S
Zn261  O143    1.966   1_455 S
Zn262  O144    1.966   1_455 S
Zn265  O126    1.936   1_545 S
Zn267  O128    2.029   1_545 S
Zn271  O291    1.677   .     S
Zn272  O289    1.950   .     S
Zn273  O134    2.029   1_545 S
Zn275  O136    1.937   1_545 S
Zn281  O142    2.028   1_545 S
Zn283  O113    2.019   1_655 S
Zn283  O144    1.937   1_545 S
Zn284  O114    2.018   1_655 S
Zn285  O292    1.725   .     S
Zn286  O290    1.936   .     S
Zn287  O117    2.019   1_655 S
Zn288  O118    2.019   1_655 S
